Version 4
SHEET 1 960 680
WIRE 80 -160 16 -160
WIRE 208 -160 160 -160
WIRE 256 -160 208 -160
WIRE 384 -160 336 -160
WIRE 16 -128 16 -160
WIRE 288 -32 288 -64
WIRE 16 -16 16 -48
WIRE 208 -16 208 -160
WIRE 256 -16 208 -16
WIRE 384 0 384 -160
WIRE 384 0 320 0
WIRE 448 0 384 0
WIRE 256 16 208 16
WIRE -176 48 -176 -16
WIRE 208 48 208 16
WIRE 288 64 288 32
WIRE -176 160 -176 128
WIRE 32 160 -176 160
WIRE 208 160 208 128
WIRE 208 160 112 160
WIRE -176 208 -176 160
WIRE 208 208 208 160
WIRE -176 336 -176 288
WIRE 208 352 208 288
FLAG 208 352 0
FLAG 16 -16 0
FLAG 288 -64 Vcc
FLAG 288 64 -Vcc
FLAG -176 -16 Vcc
FLAG -176 336 -Vcc
FLAG 448 0 Vout
IOPIN 448 0 Out
FLAG -176 160 Vcomp
FLAG 16 -160 Vi
IOPIN 16 -160 In
SYMBOL OpAmps\\AD8030 288 -64 R0
SYMATTR InstName U1
SYMBOL res 176 -176 R90
WINDOW 0 0 56 VBottom 2
WINDOW 3 59 57 VBottom 2
SYMATTR InstName R1
SYMATTR Value 3k
SYMBOL res 352 -176 R90
WINDOW 0 0 56 VBottom 2
WINDOW 3 58 57 VBottom 2
SYMATTR InstName R2
SYMATTR Value 57k
SYMBOL res 192 32 R0
WINDOW 0 -41 46 Left 2
WINDOW 3 30 94 Left 2
SYMATTR InstName R3
SYMATTR Value 2.85k
SYMBOL res 192 192 R0
WINDOW 3 36 68 Left 2
SYMATTR Value 10
SYMATTR InstName Rc1
SYMBOL res 128 144 R90
WINDOW 0 0 56 VBottom 2
WINDOW 3 60 56 VBottom 2
SYMATTR InstName Rc2
SYMATTR Value 10k
SYMBOL voltage 16 -144 R0
WINDOW 0 -79 47 Left 2
WINDOW 3 24 152 Left 2
WINDOW 123 24 124 Left 2
WINDOW 39 0 0 Left 0
SYMATTR InstName Vin1
SYMATTR Value 0
SYMATTR Value2 AC 1
SYMBOL res -192 32 R0
SYMATTR InstName R4
SYMATTR Value {10k*a}
SYMBOL res -192 192 R0
SYMATTR InstName R5
SYMATTR Value {10k*(1-a)}
TEXT 688 -96 Left 2 !.param a 500.000466m
TEXT 736 -48 Left 2 !.op
