Version 4
SHEET 1 880 888
WIRE -1808 -5536 -2096 -5536
WIRE -1584 -5536 -1728 -5536
WIRE -1424 -5536 -1504 -5536
WIRE -2656 -5456 -2656 -5488
WIRE -2096 -5280 -2096 -5536
WIRE -1840 -5280 -2096 -5280
WIRE -1424 -5280 -1424 -5536
WIRE -1424 -5280 -1760 -5280
WIRE -1312 -5280 -1424 -5280
WIRE -1152 -5280 -1232 -5280
WIRE -2656 -5216 -2656 -5280
WIRE -3616 -5088 -3616 -5120
WIRE -3392 -5088 -3392 -5136
WIRE -2656 -5088 -2656 -5104
WIRE -2096 -5024 -2096 -5280
WIRE -1824 -5024 -2096 -5024
WIRE -1152 -5024 -1152 -5280
WIRE -1152 -5024 -1744 -5024
WIRE -1024 -5024 -1152 -5024
WIRE -832 -5024 -944 -5024
WIRE -2656 -4960 -2656 -5008
WIRE -2096 -4784 -2096 -5024
WIRE -1792 -4784 -2096 -4784
WIRE -832 -4784 -832 -5024
WIRE -832 -4784 -1712 -4784
WIRE -736 -4784 -832 -4784
WIRE -512 -4784 -656 -4784
WIRE -2656 -4720 -2656 -4784
WIRE -1776 -4720 -1776 -4736
WIRE -1728 -4720 -1728 -4736
WIRE -2096 -4496 -2096 -4784
WIRE -1712 -4496 -2096 -4496
WIRE -512 -4496 -512 -4784
WIRE -512 -4496 -1632 -4496
WIRE -336 -4496 -512 -4496
WIRE -96 -4496 -256 -4496
WIRE -2656 -4400 -2656 -4496
WIRE -1408 -4288 -1408 -4320
WIRE -2224 -4272 -2336 -4272
WIRE -2096 -4272 -2096 -4496
WIRE -2096 -4272 -2144 -4272
WIRE -1440 -4272 -2096 -4272
WIRE -96 -4256 -96 -4496
WIRE -96 -4256 -1376 -4256
WIRE 0 -4256 -96 -4256
WIRE -1440 -4240 -1616 -4240
WIRE -2336 -4224 -2336 -4272
WIRE -1616 -4192 -1616 -4240
WIRE -1408 -4192 -1408 -4224
WIRE -1616 -4080 -1616 -4112
WIRE -2336 -4064 -2336 -4144
FLAG -2336 -4064 0
FLAG -3616 -5088 0
FLAG -3392 -5088 0
FLAG -3392 -5216 -Vcc
FLAG -3616 -5200 Vcc
FLAG -2656 -5456 0
FLAG -2656 -4720 0
FLAG -2656 -4400 0
FLAG -2656 -5216 0
FLAG -2656 -5568 s1
FLAG -2656 -5360 s2
FLAG -2656 -5104 s3
FLAG -2656 -4864 s4
FLAG -2656 -4576 s5
FLAG -2656 -4960 0
FLAG -1792 -5488 0
FLAG -1744 -5488 s1
FLAG -1824 -5232 0
FLAG -1776 -5232 s2
FLAG -1808 -4976 0
FLAG -1760 -4976 s3
FLAG -1776 -4720 0
FLAG -1728 -4720 s4
FLAG -1696 -4448 0
FLAG -1648 -4448 s5
FLAG 0 -4256 out
IOPIN 0 -4256 Out
FLAG -1408 -4320 Vcc
FLAG -1408 -4192 -Vcc
FLAG -2336 -4272 in
IOPIN -2336 -4272 In
FLAG -1616 -4080 0
SYMBOL res -1488 -5552 R90
WINDOW 0 0 56 VBottom 2
WINDOW 3 37 66 VTop 2
SYMATTR InstName R5
SYMATTR Value 9k
SYMBOL res -1216 -5296 R90
WINDOW 0 0 56 VBottom 2
WINDOW 3 32 56 VTop 2
SYMATTR InstName R4
SYMATTR Value 6.5k
SYMBOL res -928 -5040 R90
WINDOW 0 0 56 VBottom 2
WINDOW 3 32 56 VTop 2
SYMATTR InstName R3
SYMATTR Value 5k
SYMBOL res -640 -4800 R90
WINDOW 0 0 56 VBottom 2
WINDOW 3 32 56 VTop 2
SYMATTR InstName R2
SYMATTR Value 3k
SYMBOL res -240 -4512 R90
WINDOW 0 0 56 VBottom 2
WINDOW 3 32 56 VTop 2
SYMATTR InstName R1
SYMATTR Value 8k
SYMBOL res -2128 -4288 R90
WINDOW 0 0 56 VBottom 2
WINDOW 3 32 56 VTop 2
SYMATTR InstName RG
SYMATTR Value 5k
SYMBOL voltage -2336 -4240 R0
WINDOW 123 24 44 Left 2
WINDOW 39 0 0 Left 0
SYMATTR Value2 AC 1
SYMATTR InstName Vin
SYMATTR Value SINE(0 133m 1k)
SYMBOL voltage -3616 -5216 R0
WINDOW 123 0 0 Left 0
WINDOW 39 0 0 Left 0
SYMATTR InstName V1
SYMATTR Value 5
SYMBOL voltage -3392 -5232 R0
WINDOW 123 0 0 Left 0
WINDOW 39 0 0 Left 0
SYMATTR InstName V2
SYMATTR Value -5
SYMBOL voltage -2656 -5584 R0
WINDOW 123 0 0 Left 0
WINDOW 39 0 0 Left 0
SYMATTR InstName V3
SYMATTR Value 5
SYMBOL voltage -2656 -5104 R0
WINDOW 123 0 0 Left 0
WINDOW 39 0 0 Left 0
SYMATTR InstName V4
SYMATTR Value 0
SYMBOL voltage -2656 -5376 R0
WINDOW 123 0 0 Left 0
WINDOW 39 0 0 Left 0
SYMATTR InstName V5
SYMATTR Value 0
SYMBOL voltage -2656 -4880 R0
WINDOW 123 0 0 Left 0
WINDOW 39 0 0 Left 0
SYMATTR InstName V6
SYMATTR Value 0
SYMBOL voltage -2656 -4592 R0
WINDOW 123 0 0 Left 0
WINDOW 39 0 0 Left 0
SYMATTR InstName V7
SYMATTR Value 0
SYMBOL sw -1824 -5536 R270
SYMATTR InstName S1
SYMATTR Value MYSW
SYMBOL sw -1856 -5280 R270
SYMATTR InstName S2
SYMATTR Value MYSW
SYMBOL sw -1840 -5024 R270
SYMATTR InstName S3
SYMATTR Value MYSW
SYMBOL sw -1808 -4784 R270
SYMATTR InstName S4
SYMATTR Value MYSW
SYMBOL sw -1728 -4496 R270
SYMATTR InstName S5
SYMATTR Value MYSW
SYMBOL OpAmps\\AD8030 -1408 -4320 R0
SYMATTR InstName U1
SYMBOL voltage -1616 -4208 R0
WINDOW 123 0 0 Left 0
WINDOW 39 0 0 Left 0
SYMATTR InstName V8
SYMATTR Value 0
TEXT -3608 -5448 Left 2 !.ac dec 100 1 100Meg
TEXT -3608 -5392 Left 2 !.model MYSW SW(Ron=1m Roff=1Meg Vt=0.5 Vh=0))
TEXT -3576 -5520 Left 2 !.op
TEXT -5024 -5584 Left 2 !.meas AC Rin FIND Rintrare() AT 0.01
TEXT -5008 -5512 Left 2 !.func Rintrare() V(in)/I(Vin)
TEXT -5064 -5376 Left 2 !;tran 2m
TEXT -5064 -5280 Left 2 ;To disable compression
TEXT -5064 -5248 Left 2 !.OPTIONS numdgt=7
TEXT -5064 -5216 Left 2 ;To switch to double precision math\non dependent variables
TEXT -5064 -5344 Left 2 !.FOUR 1khz 10 V(OUT)
