Version 4
SHEET 1 880 712
WIRE 208 -528 -192 -528
WIRE 720 -528 288 -528
WIRE -192 -448 -192 -528
WIRE -96 -448 -192 -448
WIRE 32 -448 -16 -448
WIRE -192 -352 -192 -448
WIRE -96 -352 -192 -352
WIRE 32 -352 32 -448
WIRE 32 -352 -32 -352
WIRE 608 -320 560 -320
WIRE 720 -320 720 -528
WIRE 720 -320 688 -320
WIRE 272 -304 224 -304
WIRE 384 -304 336 -304
WIRE -1360 -272 -1360 -304
WIRE -1120 -272 -1120 -304
WIRE -96 -240 -96 -256
WIRE -304 -224 -368 -224
WIRE -192 -224 -192 -352
WIRE -192 -224 -224 -224
WIRE -128 -224 -192 -224
WIRE 320 -224 320 -240
WIRE 32 -208 32 -352
WIRE 32 -208 -64 -208
WIRE 96 -208 32 -208
WIRE 224 -208 224 -304
WIRE 224 -208 176 -208
WIRE 288 -208 224 -208
WIRE 656 -208 656 -224
WIRE -128 -192 -192 -192
WIRE 384 -192 384 -304
WIRE 384 -192 352 -192
WIRE 432 -192 384 -192
WIRE 560 -192 560 -320
WIRE 560 -192 512 -192
WIRE 624 -192 560 -192
WIRE 288 -176 240 -176
WIRE 720 -176 720 -320
WIRE 720 -176 688 -176
WIRE -96 -160 -96 -176
WIRE 624 -160 560 -160
WIRE -368 -144 -368 -224
WIRE -192 -144 -192 -192
WIRE 32 -144 32 -208
WIRE 320 -144 320 -160
WIRE 240 -128 240 -176
WIRE 656 -128 656 -144
WIRE -1360 -112 -1360 -192
WIRE -1120 -112 -1120 -192
WIRE 560 -112 560 -160
WIRE 384 -96 384 -192
WIRE -368 16 -368 -64
WIRE -720 80 -720 48
WIRE -720 240 -720 160
FLAG -192 -144 0
FLAG 240 -128 0
FLAG 560 -112 0
FLAG -96 -256 Vcc
FLAG 320 -240 Vcc
FLAG 656 -224 Vcc
FLAG -96 -160 -Vcc
FLAG 320 -144 -Vcc
FLAG 656 -128 -Vcc
FLAG -720 48 Vin
FLAG 32 -144 OUT_TB
FLAG 384 -96 OUT_TJ
FLAG -1360 -304 Vcc
FLAG -1120 -304 -Vcc
FLAG -1360 -112 0
FLAG -1120 -112 0
FLAG 720 -176 out
IOPIN 720 -176 Out
FLAG -720 240 0
FLAG -368 16 0
FLAG -368 -224 vi
IOPIN -368 -224 In
SYMBOL OpAmps\\AD8030 -96 -272 R0
SYMATTR InstName U1
SYMBOL OpAmps\\AD8030 320 -256 R0
SYMATTR InstName U2
SYMBOL OpAmps\\AD8030 656 -240 R0
SYMATTR InstName U3
SYMBOL res -208 -240 R90
WINDOW 0 0 56 VBottom 2
WINDOW 3 32 56 VTop 2
SYMATTR InstName R
SYMATTR Value 7.96k
SYMBOL res 192 -224 R90
WINDOW 0 0 56 VBottom 2
WINDOW 3 32 56 VTop 2
SYMATTR InstName R2
SYMATTR Value 7.96k
SYMBOL res 528 -208 R90
WINDOW 0 0 56 VBottom 2
WINDOW 3 32 56 VTop 2
SYMATTR InstName R3
SYMATTR Value 10k
SYMBOL res 304 -544 R90
WINDOW 0 0 56 VBottom 2
WINDOW 3 32 56 VTop 2
SYMATTR InstName R4
SYMATTR Value 7.96k
SYMBOL res 0 -464 R90
WINDOW 0 0 56 VBottom 2
WINDOW 3 32 56 VTop 2
SYMATTR InstName R1
SYMATTR Value 5.63k
SYMBOL cap -96 -336 R270
WINDOW 0 32 32 VTop 2
WINDOW 3 0 32 VBottom 2
SYMATTR InstName C1
SYMATTR Value 2.5n
SYMBOL cap 272 -288 R270
WINDOW 0 32 32 VTop 2
WINDOW 3 0 32 VBottom 2
SYMATTR InstName C2
SYMATTR Value 2.5n
SYMBOL res 704 -336 R90
WINDOW 0 0 56 VBottom 2
WINDOW 3 32 56 VTop 2
SYMATTR InstName R5
SYMATTR Value 10k
SYMBOL voltage -1360 -288 R0
SYMATTR InstName V1
SYMATTR Value 5
SYMBOL voltage -1120 -288 R0
SYMATTR InstName V2
SYMATTR Value -5
SYMBOL voltage -720 64 R0
WINDOW 123 37 79 Left 2
WINDOW 39 0 0 Left 0
SYMATTR Value2 AC 1
SYMATTR InstName V3
SYMATTR Value ""
SYMBOL voltage -368 -160 R0
WINDOW 123 24 44 Left 2
WINDOW 39 0 0 Left 0
SYMATTR Value2 AC 1
SYMATTR InstName V4
SYMATTR Value SINE(0 100m 10k)
TEXT -792 -536 Left 2 !.op
TEXT -784 -488 Left 2 !;ac oct 100 1 10Meg
TEXT -776 -448 Left 2 !;step param Rq 3k 10k 1k
TEXT -800 -600 Left 2 !.tran 2m
TEXT -856 -672 Left 2 !.FOUR 10khz 10 V(OUT_TJ)
TEXT -840 -728 Left 2 !.FOUR 10khz 10 V(OUT_TB)
TEXT -488 -720 Left 2 !.FOUR 10khz 10 V(out)
TEXT -888 -384 Left 2 !.meas AC Rin FIND Rintrare() AT 0.01
TEXT -864 -328 Left 2 !.func Rintrare() V(vi)/I(V4)
