Version 4
SHEET 1 880 680
WIRE 112 160 96 160
WIRE 256 160 224 160
WIRE 400 160 368 160
SYMBOL etaj2_ 160 160 R0
SYMATTR InstName etaj2
SYMBOL etaj3_ 304 160 R0
SYMATTR InstName etaj3
SYMBOL etaj4_ 448 160 R0
SYMATTR InstName etaj4
SYMBOL ETAJ1 32 160 R0
SYMATTR InstName etaj1
TEXT 104 32 Left 2 !.op
TEXT 72 8 Left 2 !.ac dec 100 10 1Meg
TEXT 80 -32 Left 2 !;tran 2m
